
---------- Begin Simulation Statistics ----------
final_tick                                 9068436500                       # Number of ticks from beginning of simulation (restored from checkpoints and never reset)
host_inst_rate                                1344893                       # Simulator instruction rate (inst/s)
host_mem_usage                                 715220                       # Number of bytes of host memory used
host_op_rate                                  1798489                       # Simulator op (including micro ops) rate (op/s)
host_seconds                                     7.39                       # Real time elapsed on the host
host_tick_rate                             1226839242                       # Simulator tick rate (ticks/s)
sim_freq                                 1000000000000                       # Frequency of simulated ticks
sim_insts                                     9940863                       # Number of instructions simulated
sim_ops                                      13293862                       # Number of ops (including micro ops) simulated
sim_seconds                                  0.009068                       # Number of seconds simulated
sim_ticks                                  9068436500                       # Number of ticks simulated
system.clk_domain.clock                          1000                       # Clock period in ticks
system.cpu.Branches                            361672                       # Number of branches fetched
system.cpu.committedInsts                     9940863                       # Number of instructions committed
system.cpu.committedOps                      13293862                       # Number of ops (including micro ops) committed
system.cpu.dcache.ReadReq_accesses::.cpu.data      4008276                       # number of ReadReq accesses(hits+misses)
system.cpu.dcache.ReadReq_accesses::total      4008276                       # number of ReadReq accesses(hits+misses)
system.cpu.dcache.ReadReq_hits::.cpu.data      3986206                       # number of ReadReq hits
system.cpu.dcache.ReadReq_hits::total         3986206                       # number of ReadReq hits
system.cpu.dcache.ReadReq_miss_rate::.cpu.data     0.005506                       # miss rate for ReadReq accesses
system.cpu.dcache.ReadReq_miss_rate::total     0.005506                       # miss rate for ReadReq accesses
system.cpu.dcache.ReadReq_misses::.cpu.data        22070                       # number of ReadReq misses
system.cpu.dcache.ReadReq_misses::total         22070                       # number of ReadReq misses
system.cpu.dcache.WriteReq_accesses::.cpu.data       654796                       # number of WriteReq accesses(hits+misses)
system.cpu.dcache.WriteReq_accesses::total       654796                       # number of WriteReq accesses(hits+misses)
system.cpu.dcache.WriteReq_hits::.cpu.data       627721                       # number of WriteReq hits
system.cpu.dcache.WriteReq_hits::total         627721                       # number of WriteReq hits
system.cpu.dcache.WriteReq_miss_rate::.cpu.data     0.041349                       # miss rate for WriteReq accesses
system.cpu.dcache.WriteReq_miss_rate::total     0.041349                       # miss rate for WriteReq accesses
system.cpu.dcache.WriteReq_misses::.cpu.data        27075                       # number of WriteReq misses
system.cpu.dcache.WriteReq_misses::total        27075                       # number of WriteReq misses
system.cpu.dcache.avg_blocked_cycles::no_mshrs          nan                       # average number of cycles each access was blocked
system.cpu.dcache.avg_blocked_cycles::no_targets          nan                       # average number of cycles each access was blocked
system.cpu.dcache.blocked::no_mshrs                 0                       # number of cycles access was blocked
system.cpu.dcache.blocked::no_targets               0                       # number of cycles access was blocked
system.cpu.dcache.blocked_cycles::no_mshrs            0                       # number of cycles access was blocked
system.cpu.dcache.blocked_cycles::no_targets            0                       # number of cycles access was blocked
system.cpu.dcache.demand_accesses::.cpu.data      4663072                       # number of demand (read+write) accesses
system.cpu.dcache.demand_accesses::total      4663072                       # number of demand (read+write) accesses
system.cpu.dcache.demand_hits::.cpu.data      4613927                       # number of demand (read+write) hits
system.cpu.dcache.demand_hits::total          4613927                       # number of demand (read+write) hits
system.cpu.dcache.demand_miss_rate::.cpu.data     0.010539                       # miss rate for demand accesses
system.cpu.dcache.demand_miss_rate::total     0.010539                       # miss rate for demand accesses
system.cpu.dcache.demand_misses::.cpu.data        49145                       # number of demand (read+write) misses
system.cpu.dcache.demand_misses::total          49145                       # number of demand (read+write) misses
system.cpu.dcache.overall_accesses::.cpu.data      4663072                       # number of overall (read+write) accesses
system.cpu.dcache.overall_accesses::total      4663072                       # number of overall (read+write) accesses
system.cpu.dcache.overall_hits::.cpu.data      4613927                       # number of overall hits
system.cpu.dcache.overall_hits::total         4613927                       # number of overall hits
system.cpu.dcache.overall_miss_rate::.cpu.data     0.010539                       # miss rate for overall accesses
system.cpu.dcache.overall_miss_rate::total     0.010539                       # miss rate for overall accesses
system.cpu.dcache.overall_misses::.cpu.data        49145                       # number of overall misses
system.cpu.dcache.overall_misses::total         49145                       # number of overall misses
system.cpu.dcache.pwrStateResidencyTicks::UNDEFINED   9068436500                       # Cumulative time (in ticks) in various power states
system.cpu.dcache.replacements                  45049                       # number of replacements
system.cpu.dcache.tags.age_task_id_blocks_1024::0          106                       # Occupied blocks per task id
system.cpu.dcache.tags.age_task_id_blocks_1024::1          274                       # Occupied blocks per task id
system.cpu.dcache.tags.age_task_id_blocks_1024::2          438                       # Occupied blocks per task id
system.cpu.dcache.tags.age_task_id_blocks_1024::3         3278                       # Occupied blocks per task id
system.cpu.dcache.tags.avg_refs             94.883956                       # Average number of references to valid blocks.
system.cpu.dcache.tags.data_accesses          9375289                       # Number of data accesses
system.cpu.dcache.tags.occ_blocks::.cpu.data  4080.973465                       # Average occupied blocks per requestor
system.cpu.dcache.tags.occ_percent::.cpu.data     0.996331                       # Average percentage of cache occupancy
system.cpu.dcache.tags.occ_percent::total     0.996331                       # Average percentage of cache occupancy
system.cpu.dcache.tags.occ_task_id_blocks::1024         4096                       # Occupied blocks per task id
system.cpu.dcache.tags.occ_task_id_percent::1024            1                       # Percentage of cache occupancy per task id
system.cpu.dcache.tags.pwrStateResidencyTicks::UNDEFINED   9068436500                       # Cumulative time (in ticks) in various power states
system.cpu.dcache.tags.sampled_refs             49145                       # Sample count of references to valid blocks.
system.cpu.dcache.tags.tag_accesses           9375289                       # Number of tag accesses
system.cpu.dcache.tags.tagsinuse          4080.973465                       # Cycle average of tags in use
system.cpu.dcache.tags.total_refs             4663072                       # Total number of references to valid blocks.
system.cpu.dcache.tags.warmup_cycle              1500                       # Cycle when the warmup percentage was hit.
system.cpu.dcache.writebacks::.writebacks        28818                       # number of writebacks
system.cpu.dcache.writebacks::total             28818                       # number of writebacks
system.cpu.dtb.rdAccesses                     4008276                       # TLB accesses on read requests
system.cpu.dtb.rdMisses                           132                       # TLB misses on read requests
system.cpu.dtb.walker.pwrStateResidencyTicks::UNDEFINED   9068436500                       # Cumulative time (in ticks) in various power states
system.cpu.dtb.wrAccesses                      654796                       # TLB accesses on write requests
system.cpu.dtb.wrMisses                           127                       # TLB misses on write requests
system.cpu.dtb_walker_cache.avg_blocked_cycles::no_mshrs          nan                       # average number of cycles each access was blocked
system.cpu.dtb_walker_cache.avg_blocked_cycles::no_targets          nan                       # average number of cycles each access was blocked
system.cpu.dtb_walker_cache.blocked::no_mshrs            0                       # number of cycles access was blocked
system.cpu.dtb_walker_cache.blocked::no_targets            0                       # number of cycles access was blocked
system.cpu.dtb_walker_cache.blocked_cycles::no_mshrs            0                       # number of cycles access was blocked
system.cpu.dtb_walker_cache.blocked_cycles::no_targets            0                       # number of cycles access was blocked
system.cpu.dtb_walker_cache.pwrStateResidencyTicks::UNDEFINED   9068436500                       # Cumulative time (in ticks) in various power states
system.cpu.dtb_walker_cache.replacements            0                       # number of replacements
system.cpu.dtb_walker_cache.tags.avg_refs          nan                       # Average number of references to valid blocks.
system.cpu.dtb_walker_cache.tags.data_accesses            0                       # Number of data accesses
system.cpu.dtb_walker_cache.tags.pwrStateResidencyTicks::UNDEFINED   9068436500                       # Cumulative time (in ticks) in various power states
system.cpu.dtb_walker_cache.tags.sampled_refs            0                       # Sample count of references to valid blocks.
system.cpu.dtb_walker_cache.tags.tag_accesses            0                       # Number of tag accesses
system.cpu.dtb_walker_cache.tags.tagsinuse            0                       # Cycle average of tags in use
system.cpu.dtb_walker_cache.tags.total_refs            0                       # Total number of references to valid blocks.
system.cpu.dtb_walker_cache.tags.warmup_cycle            0                       # Cycle when the warmup percentage was hit.
system.cpu.icache.ReadReq_accesses::.cpu.inst     14783875                       # number of ReadReq accesses(hits+misses)
system.cpu.icache.ReadReq_accesses::total     14783875                       # number of ReadReq accesses(hits+misses)
system.cpu.icache.ReadReq_hits::.cpu.inst     14779399                       # number of ReadReq hits
system.cpu.icache.ReadReq_hits::total        14779399                       # number of ReadReq hits
system.cpu.icache.ReadReq_miss_rate::.cpu.inst     0.000303                       # miss rate for ReadReq accesses
system.cpu.icache.ReadReq_miss_rate::total     0.000303                       # miss rate for ReadReq accesses
system.cpu.icache.ReadReq_misses::.cpu.inst         4476                       # number of ReadReq misses
system.cpu.icache.ReadReq_misses::total          4476                       # number of ReadReq misses
system.cpu.icache.avg_blocked_cycles::no_mshrs          nan                       # average number of cycles each access was blocked
system.cpu.icache.avg_blocked_cycles::no_targets          nan                       # average number of cycles each access was blocked
system.cpu.icache.blocked::no_mshrs                 0                       # number of cycles access was blocked
system.cpu.icache.blocked::no_targets               0                       # number of cycles access was blocked
system.cpu.icache.blocked_cycles::no_mshrs            0                       # number of cycles access was blocked
system.cpu.icache.blocked_cycles::no_targets            0                       # number of cycles access was blocked
system.cpu.icache.demand_accesses::.cpu.inst     14783875                       # number of demand (read+write) accesses
system.cpu.icache.demand_accesses::total     14783875                       # number of demand (read+write) accesses
system.cpu.icache.demand_hits::.cpu.inst     14779399                       # number of demand (read+write) hits
system.cpu.icache.demand_hits::total         14779399                       # number of demand (read+write) hits
system.cpu.icache.demand_miss_rate::.cpu.inst     0.000303                       # miss rate for demand accesses
system.cpu.icache.demand_miss_rate::total     0.000303                       # miss rate for demand accesses
system.cpu.icache.demand_misses::.cpu.inst         4476                       # number of demand (read+write) misses
system.cpu.icache.demand_misses::total           4476                       # number of demand (read+write) misses
system.cpu.icache.overall_accesses::.cpu.inst     14783875                       # number of overall (read+write) accesses
system.cpu.icache.overall_accesses::total     14783875                       # number of overall (read+write) accesses
system.cpu.icache.overall_hits::.cpu.inst     14779399                       # number of overall hits
system.cpu.icache.overall_hits::total        14779399                       # number of overall hits
system.cpu.icache.overall_miss_rate::.cpu.inst     0.000303                       # miss rate for overall accesses
system.cpu.icache.overall_miss_rate::total     0.000303                       # miss rate for overall accesses
system.cpu.icache.overall_misses::.cpu.inst         4476                       # number of overall misses
system.cpu.icache.overall_misses::total          4476                       # number of overall misses
system.cpu.icache.pwrStateResidencyTicks::UNDEFINED   9068436500                       # Cumulative time (in ticks) in various power states
system.cpu.icache.replacements                   1149                       # number of replacements
system.cpu.icache.tags.age_task_id_blocks_1024::0          422                       # Occupied blocks per task id
system.cpu.icache.tags.age_task_id_blocks_1024::1          269                       # Occupied blocks per task id
system.cpu.icache.tags.age_task_id_blocks_1024::3         2636                       # Occupied blocks per task id
system.cpu.icache.tags.avg_refs           3302.921135                       # Average number of references to valid blocks.
system.cpu.icache.tags.data_accesses         29572226                       # Number of data accesses
system.cpu.icache.tags.occ_blocks::.cpu.inst  2918.068720                       # Average occupied blocks per requestor
system.cpu.icache.tags.occ_percent::.cpu.inst     0.712419                       # Average percentage of cache occupancy
system.cpu.icache.tags.occ_percent::total     0.712419                       # Average percentage of cache occupancy
system.cpu.icache.tags.occ_task_id_blocks::1024         3327                       # Occupied blocks per task id
system.cpu.icache.tags.occ_task_id_percent::1024     0.812256                       # Percentage of cache occupancy per task id
system.cpu.icache.tags.pwrStateResidencyTicks::UNDEFINED   9068436500                       # Cumulative time (in ticks) in various power states
system.cpu.icache.tags.sampled_refs              4476                       # Sample count of references to valid blocks.
system.cpu.icache.tags.tag_accesses          29572226                       # Number of tag accesses
system.cpu.icache.tags.tagsinuse          2918.068720                       # Cycle average of tags in use
system.cpu.icache.tags.total_refs            14783875                       # Total number of references to valid blocks.
system.cpu.icache.tags.warmup_cycle                 0                       # Cycle when the warmup percentage was hit.
system.cpu.icache.writebacks::.writebacks         1149                       # number of writebacks
system.cpu.icache.writebacks::total              1149                       # number of writebacks
system.cpu.idle_fraction                     0.000000                       # Percentage of idle cycles
system.cpu.interrupts.clk_domain.clock           8000                       # Clock period in ticks
system.cpu.interrupts.pwrStateResidencyTicks::UNDEFINED   9068436500                       # Cumulative time (in ticks) in various power states
system.cpu.itb.rdAccesses                           0                       # TLB accesses on read requests
system.cpu.itb.rdMisses                             0                       # TLB misses on read requests
system.cpu.itb.walker.pwrStateResidencyTicks::UNDEFINED   9068436500                       # Cumulative time (in ticks) in various power states
system.cpu.itb.wrAccesses                    14783875                       # TLB accesses on write requests
system.cpu.itb.wrMisses                           137                       # TLB misses on write requests
system.cpu.itb_walker_cache.avg_blocked_cycles::no_mshrs          nan                       # average number of cycles each access was blocked
system.cpu.itb_walker_cache.avg_blocked_cycles::no_targets          nan                       # average number of cycles each access was blocked
system.cpu.itb_walker_cache.blocked::no_mshrs            0                       # number of cycles access was blocked
system.cpu.itb_walker_cache.blocked::no_targets            0                       # number of cycles access was blocked
system.cpu.itb_walker_cache.blocked_cycles::no_mshrs            0                       # number of cycles access was blocked
system.cpu.itb_walker_cache.blocked_cycles::no_targets            0                       # number of cycles access was blocked
system.cpu.itb_walker_cache.pwrStateResidencyTicks::UNDEFINED   9068436500                       # Cumulative time (in ticks) in various power states
system.cpu.itb_walker_cache.replacements            0                       # number of replacements
system.cpu.itb_walker_cache.tags.avg_refs          nan                       # Average number of references to valid blocks.
system.cpu.itb_walker_cache.tags.data_accesses            0                       # Number of data accesses
system.cpu.itb_walker_cache.tags.pwrStateResidencyTicks::UNDEFINED   9068436500                       # Cumulative time (in ticks) in various power states
system.cpu.itb_walker_cache.tags.sampled_refs            0                       # Sample count of references to valid blocks.
system.cpu.itb_walker_cache.tags.tag_accesses            0                       # Number of tag accesses
system.cpu.itb_walker_cache.tags.tagsinuse            0                       # Cycle average of tags in use
system.cpu.itb_walker_cache.tags.total_refs            0                       # Total number of references to valid blocks.
system.cpu.itb_walker_cache.tags.warmup_cycle            0                       # Cycle when the warmup percentage was hit.
system.cpu.not_idle_fraction                 1.000000                       # Percentage of non-idle cycles
system.cpu.numCycles                         18136874                       # number of cpu cycles simulated
system.cpu.numWorkItemsCompleted                    0                       # number of work items this cpu completed
system.cpu.numWorkItemsStarted                      0                       # number of work items this cpu started
system.cpu.num_busy_cycles               18136873.998000                       # Number of busy cycles
system.cpu.num_cc_register_reads              2931093                       # number of times the CC registers were read
system.cpu.num_cc_register_writes             5830103                       # number of times the CC registers were written
system.cpu.num_conditional_control_insts       349270                       # number of instructions that are conditional controls
system.cpu.num_fp_alu_accesses                2594624                       # Number of float alu accesses
system.cpu.num_fp_insts                       2594624                       # number of float instructions
system.cpu.num_fp_register_reads              2007347                       # number of times the floating registers were read
system.cpu.num_fp_register_writes             2267349                       # number of times the floating registers were written
system.cpu.num_func_calls                        4073                       # number of times a function call or return occured
system.cpu.num_idle_cycles                   0.002000                       # Number of idle cycles
system.cpu.num_int_alu_accesses              11854638                       # Number of integer alu accesses
system.cpu.num_int_insts                     11854638                       # number of integer instructions
system.cpu.num_int_register_reads            24812305                       # number of times the integer registers were read
system.cpu.num_int_register_writes           10012090                       # number of times the integer registers were written
system.cpu.num_load_insts                     4007920                       # Number of load instructions
system.cpu.num_mem_refs                       4662607                       # number of memory refs
system.cpu.num_store_insts                     654687                       # Number of store instructions
system.cpu.num_vec_alu_accesses                     0                       # Number of vector alu accesses
system.cpu.num_vec_insts                            0                       # number of vector instructions
system.cpu.num_vec_register_reads                   0                       # number of times the vector registers were read
system.cpu.num_vec_register_writes                  0                       # number of times the vector registers were written
system.cpu.op_class::No_OpClass                  2967      0.02%      0.02% # Class of executed instruction
system.cpu.op_class::IntAlu                   7189273     54.08%     54.10% # Class of executed instruction
system.cpu.op_class::IntMult                      108      0.00%     54.10% # Class of executed instruction
system.cpu.op_class::IntDiv                      1712      0.01%     54.12% # Class of executed instruction
system.cpu.op_class::FloatAdd                  860540      6.47%     60.59% # Class of executed instruction
system.cpu.op_class::FloatCmp                       0      0.00%     60.59% # Class of executed instruction
system.cpu.op_class::FloatCvt                      32      0.00%     60.59% # Class of executed instruction
system.cpu.op_class::FloatMult                      0      0.00%     60.59% # Class of executed instruction
system.cpu.op_class::FloatMultAcc                   0      0.00%     60.59% # Class of executed instruction
system.cpu.op_class::FloatDiv                       0      0.00%     60.59% # Class of executed instruction
system.cpu.op_class::FloatMisc                      0      0.00%     60.59% # Class of executed instruction
system.cpu.op_class::FloatSqrt                      0      0.00%     60.59% # Class of executed instruction
system.cpu.op_class::SimdAdd                     1210      0.01%     60.60% # Class of executed instruction
system.cpu.op_class::SimdAddAcc                     0      0.00%     60.60% # Class of executed instruction
system.cpu.op_class::SimdAlu                    43955      0.33%     60.93% # Class of executed instruction
system.cpu.op_class::SimdCmp                       54      0.00%     60.93% # Class of executed instruction
system.cpu.op_class::SimdCvt                     3200      0.02%     60.95% # Class of executed instruction
system.cpu.op_class::SimdMisc                    3135      0.02%     60.98% # Class of executed instruction
system.cpu.op_class::SimdMult                       0      0.00%     60.98% # Class of executed instruction
system.cpu.op_class::SimdMultAcc                    0      0.00%     60.98% # Class of executed instruction
system.cpu.op_class::SimdShift                    737      0.01%     60.98% # Class of executed instruction
system.cpu.op_class::SimdShiftAcc                   0      0.00%     60.98% # Class of executed instruction
system.cpu.op_class::SimdDiv                        0      0.00%     60.98% # Class of executed instruction
system.cpu.op_class::SimdSqrt                       0      0.00%     60.98% # Class of executed instruction
system.cpu.op_class::SimdFloatAdd              262144      1.97%     62.95% # Class of executed instruction
system.cpu.op_class::SimdFloatAlu                   0      0.00%     62.95% # Class of executed instruction
system.cpu.op_class::SimdFloatCmp                   0      0.00%     62.95% # Class of executed instruction
system.cpu.op_class::SimdFloatCvt                  39      0.00%     62.95% # Class of executed instruction
system.cpu.op_class::SimdFloatDiv                   4      0.00%     62.95% # Class of executed instruction
system.cpu.op_class::SimdFloatMisc                  0      0.00%     62.95% # Class of executed instruction
system.cpu.op_class::SimdFloatMult             262145      1.97%     64.93% # Class of executed instruction
system.cpu.op_class::SimdFloatMultAcc               0      0.00%     64.93% # Class of executed instruction
system.cpu.op_class::SimdFloatSqrt                  0      0.00%     64.93% # Class of executed instruction
system.cpu.op_class::SimdReduceAdd                  0      0.00%     64.93% # Class of executed instruction
system.cpu.op_class::SimdReduceAlu                  0      0.00%     64.93% # Class of executed instruction
system.cpu.op_class::SimdReduceCmp                  0      0.00%     64.93% # Class of executed instruction
system.cpu.op_class::SimdFloatReduceAdd             0      0.00%     64.93% # Class of executed instruction
system.cpu.op_class::SimdFloatReduceCmp             0      0.00%     64.93% # Class of executed instruction
system.cpu.op_class::SimdAes                        0      0.00%     64.93% # Class of executed instruction
system.cpu.op_class::SimdAesMix                     0      0.00%     64.93% # Class of executed instruction
system.cpu.op_class::SimdSha1Hash                   0      0.00%     64.93% # Class of executed instruction
system.cpu.op_class::SimdSha1Hash2                  0      0.00%     64.93% # Class of executed instruction
system.cpu.op_class::SimdSha256Hash                 0      0.00%     64.93% # Class of executed instruction
system.cpu.op_class::SimdSha256Hash2                0      0.00%     64.93% # Class of executed instruction
system.cpu.op_class::SimdShaSigma2                  0      0.00%     64.93% # Class of executed instruction
system.cpu.op_class::SimdShaSigma3                  0      0.00%     64.93% # Class of executed instruction
system.cpu.op_class::SimdPredAlu                    0      0.00%     64.93% # Class of executed instruction
system.cpu.op_class::MemRead                  3176833     23.90%     88.82% # Class of executed instruction
system.cpu.op_class::MemWrite                  329456      2.48%     91.30% # Class of executed instruction
system.cpu.op_class::FloatMemRead              831087      6.25%     97.55% # Class of executed instruction
system.cpu.op_class::FloatMemWrite             325231      2.45%    100.00% # Class of executed instruction
system.cpu.op_class::IprAccess                      0      0.00%    100.00% # Class of executed instruction
system.cpu.op_class::InstPrefetch                   0      0.00%    100.00% # Class of executed instruction
system.cpu.op_class::total                   13293862                       # Class of executed instruction
system.cpu.pwrStateResidencyTicks::ON      9068436500                       # Cumulative time (in ticks) in various power states
system.cpu.workload.numSyscalls                    63                       # Number of system calls
system.cpu_clk_domain.clock                       500                       # Clock period in ticks
system.cpu_voltage_domain.voltage                   1                       # Voltage in Volts
system.mem_ctrls.avgBusLat                        nan                       # Average bus latency per DRAM burst
system.mem_ctrls.avgGap                           nan                       # Average gap between requests
system.mem_ctrls.avgMemAccLat                     nan                       # Average memory access latency per DRAM burst
system.mem_ctrls.avgQLat                          nan                       # Average queueing delay per DRAM burst
system.mem_ctrls.avgRdBW                         0.00                       # Average DRAM read bandwidth in MiByte/s
system.mem_ctrls.avgRdBWSys                      0.00                       # Average system read bandwidth in MiByte/s
system.mem_ctrls.avgRdQLen                       0.00                       # Average read queue length when enqueuing
system.mem_ctrls.avgWrBW                         0.00                       # Average achieved write bandwidth in MiByte/s
system.mem_ctrls.avgWrBWSys                      0.00                       # Average system write bandwidth in MiByte/s
system.mem_ctrls.avgWrQLen                       0.00                       # Average write queue length when enqueuing
system.mem_ctrls.busUtil                         0.00                       # Data bus utilization in percentage
system.mem_ctrls.busUtilRead                     0.00                       # Data bus utilization in percentage for reads
system.mem_ctrls.busUtilWrite                    0.00                       # Data bus utilization in percentage for writes
system.mem_ctrls.bw_inst_read::.cpu.inst      7897282                       # Instruction read bandwidth from this memory (bytes/s)
system.mem_ctrls.bw_inst_read::total          7897282                       # Instruction read bandwidth from this memory (bytes/s)
system.mem_ctrls.bw_read::.cpu.inst           7897282                       # Total read bandwidth from this memory (bytes/s)
system.mem_ctrls.bw_read::.cpu.data          86709545                       # Total read bandwidth from this memory (bytes/s)
system.mem_ctrls.bw_read::total              94606827                       # Total read bandwidth from this memory (bytes/s)
system.mem_ctrls.bw_total::.writebacks       50845369                       # Total bandwidth to/from this memory (bytes/s)
system.mem_ctrls.bw_total::.cpu.inst          7897282                       # Total bandwidth to/from this memory (bytes/s)
system.mem_ctrls.bw_total::.cpu.data         86709545                       # Total bandwidth to/from this memory (bytes/s)
system.mem_ctrls.bw_total::total            145452196                       # Total bandwidth to/from this memory (bytes/s)
system.mem_ctrls.bw_write::.writebacks       50845369                       # Write bandwidth from this memory (bytes/s)
system.mem_ctrls.bw_write::total             50845369                       # Write bandwidth from this memory (bytes/s)
system.mem_ctrls.bytesReadDRAM                      0                       # Total number of bytes read from DRAM
system.mem_ctrls.bytesReadSys                       0                       # Total read bytes from the system interface side
system.mem_ctrls.bytesReadWrQ                       0                       # Total number of bytes read from write queue
system.mem_ctrls.bytesWritten                       0                       # Total number of bytes written to DRAM
system.mem_ctrls.bytesWrittenSys                    0                       # Total written bytes from the system interface side
system.mem_ctrls.bytes_inst_read::.cpu.inst        71616                       # Number of instructions bytes read from this memory
system.mem_ctrls.bytes_inst_read::total         71616                       # Number of instructions bytes read from this memory
system.mem_ctrls.bytes_read::.cpu.inst          71616                       # Number of bytes read from this memory
system.mem_ctrls.bytes_read::.cpu.data         786320                       # Number of bytes read from this memory
system.mem_ctrls.bytes_read::total             857936                       # Number of bytes read from this memory
system.mem_ctrls.bytes_written::.writebacks       461088                       # Number of bytes written to this memory
system.mem_ctrls.bytes_written::total          461088                       # Number of bytes written to this memory
system.mem_ctrls.mergedWrBursts                     0                       # Number of DRAM write bursts merged with an existing one
system.mem_ctrls.neitherReadNorWriteReqs            0                       # Number of requests that are neither read nor write
system.mem_ctrls.numRdRetry                         0                       # Number of times read queue was full causing retry
system.mem_ctrls.numReadWriteTurnArounds            0                       # Number of turnarounds from READ to WRITE
system.mem_ctrls.numStayReadState                   0                       # Number of times bus staying in READ state
system.mem_ctrls.numStayWriteState                  0                       # Number of times bus staying in WRITE state
system.mem_ctrls.numWrRetry                         0                       # Number of times write queue was full causing retry
system.mem_ctrls.numWriteReadTurnArounds            0                       # Number of turnarounds from WRITE to READ
system.mem_ctrls.num_reads::.cpu.inst            4476                       # Number of read requests responded to by this memory
system.mem_ctrls.num_reads::.cpu.data           49145                       # Number of read requests responded to by this memory
system.mem_ctrls.num_reads::total               53621                       # Number of read requests responded to by this memory
system.mem_ctrls.num_writes::.writebacks        28818                       # Number of write requests responded to by this memory
system.mem_ctrls.num_writes::total              28818                       # Number of write requests responded to by this memory
system.mem_ctrls.pageHitRate                      nan                       # Row buffer hit rate, read and write combined
system.mem_ctrls.peakBW                      12800.00                       # Theoretical peak bandwidth in MiByte/s
system.mem_ctrls.perBankRdBursts::0                 0                       # Per bank write bursts
system.mem_ctrls.perBankRdBursts::1                 0                       # Per bank write bursts
system.mem_ctrls.perBankRdBursts::2                 0                       # Per bank write bursts
system.mem_ctrls.perBankRdBursts::3                 0                       # Per bank write bursts
system.mem_ctrls.perBankRdBursts::4                 0                       # Per bank write bursts
system.mem_ctrls.perBankRdBursts::5                 0                       # Per bank write bursts
system.mem_ctrls.perBankRdBursts::6                 0                       # Per bank write bursts
system.mem_ctrls.perBankRdBursts::7                 0                       # Per bank write bursts
system.mem_ctrls.perBankRdBursts::8                 0                       # Per bank write bursts
system.mem_ctrls.perBankRdBursts::9                 0                       # Per bank write bursts
system.mem_ctrls.perBankRdBursts::10                0                       # Per bank write bursts
system.mem_ctrls.perBankRdBursts::11                0                       # Per bank write bursts
system.mem_ctrls.perBankRdBursts::12                0                       # Per bank write bursts
system.mem_ctrls.perBankRdBursts::13                0                       # Per bank write bursts
system.mem_ctrls.perBankRdBursts::14                0                       # Per bank write bursts
system.mem_ctrls.perBankRdBursts::15                0                       # Per bank write bursts
system.mem_ctrls.perBankWrBursts::0                 0                       # Per bank write bursts
system.mem_ctrls.perBankWrBursts::1                 0                       # Per bank write bursts
system.mem_ctrls.perBankWrBursts::2                 0                       # Per bank write bursts
system.mem_ctrls.perBankWrBursts::3                 0                       # Per bank write bursts
system.mem_ctrls.perBankWrBursts::4                 0                       # Per bank write bursts
system.mem_ctrls.perBankWrBursts::5                 0                       # Per bank write bursts
system.mem_ctrls.perBankWrBursts::6                 0                       # Per bank write bursts
system.mem_ctrls.perBankWrBursts::7                 0                       # Per bank write bursts
system.mem_ctrls.perBankWrBursts::8                 0                       # Per bank write bursts
system.mem_ctrls.perBankWrBursts::9                 0                       # Per bank write bursts
system.mem_ctrls.perBankWrBursts::10                0                       # Per bank write bursts
system.mem_ctrls.perBankWrBursts::11                0                       # Per bank write bursts
system.mem_ctrls.perBankWrBursts::12                0                       # Per bank write bursts
system.mem_ctrls.perBankWrBursts::13                0                       # Per bank write bursts
system.mem_ctrls.perBankWrBursts::14                0                       # Per bank write bursts
system.mem_ctrls.perBankWrBursts::15                0                       # Per bank write bursts
system.mem_ctrls.priorityMaxLatency      0.000000000000                       # per QoS priority maximum request to response latency (s)
system.mem_ctrls.priorityMinLatency      0.000000000000                       # per QoS priority minimum request to response latency (s)
system.mem_ctrls.pwrStateResidencyTicks::UNDEFINED   9068436500                       # Cumulative time (in ticks) in various power states
system.mem_ctrls.rdQLenPdf::0                       0                       # What read queue length does an incoming req see
system.mem_ctrls.rdQLenPdf::1                       0                       # What read queue length does an incoming req see
system.mem_ctrls.rdQLenPdf::2                       0                       # What read queue length does an incoming req see
system.mem_ctrls.rdQLenPdf::3                       0                       # What read queue length does an incoming req see
system.mem_ctrls.rdQLenPdf::4                       0                       # What read queue length does an incoming req see
system.mem_ctrls.rdQLenPdf::5                       0                       # What read queue length does an incoming req see
system.mem_ctrls.rdQLenPdf::6                       0                       # What read queue length does an incoming req see
system.mem_ctrls.rdQLenPdf::7                       0                       # What read queue length does an incoming req see
system.mem_ctrls.rdQLenPdf::8                       0                       # What read queue length does an incoming req see
system.mem_ctrls.rdQLenPdf::9                       0                       # What read queue length does an incoming req see
system.mem_ctrls.rdQLenPdf::10                      0                       # What read queue length does an incoming req see
system.mem_ctrls.rdQLenPdf::11                      0                       # What read queue length does an incoming req see
system.mem_ctrls.rdQLenPdf::12                      0                       # What read queue length does an incoming req see
system.mem_ctrls.rdQLenPdf::13                      0                       # What read queue length does an incoming req see
system.mem_ctrls.rdQLenPdf::14                      0                       # What read queue length does an incoming req see
system.mem_ctrls.rdQLenPdf::15                      0                       # What read queue length does an incoming req see
system.mem_ctrls.rdQLenPdf::16                      0                       # What read queue length does an incoming req see
system.mem_ctrls.rdQLenPdf::17                      0                       # What read queue length does an incoming req see
system.mem_ctrls.rdQLenPdf::18                      0                       # What read queue length does an incoming req see
system.mem_ctrls.rdQLenPdf::19                      0                       # What read queue length does an incoming req see
system.mem_ctrls.rdQLenPdf::20                      0                       # What read queue length does an incoming req see
system.mem_ctrls.rdQLenPdf::21                      0                       # What read queue length does an incoming req see
system.mem_ctrls.rdQLenPdf::22                      0                       # What read queue length does an incoming req see
system.mem_ctrls.rdQLenPdf::23                      0                       # What read queue length does an incoming req see
system.mem_ctrls.rdQLenPdf::24                      0                       # What read queue length does an incoming req see
system.mem_ctrls.rdQLenPdf::25                      0                       # What read queue length does an incoming req see
system.mem_ctrls.rdQLenPdf::26                      0                       # What read queue length does an incoming req see
system.mem_ctrls.rdQLenPdf::27                      0                       # What read queue length does an incoming req see
system.mem_ctrls.rdQLenPdf::28                      0                       # What read queue length does an incoming req see
system.mem_ctrls.rdQLenPdf::29                      0                       # What read queue length does an incoming req see
system.mem_ctrls.rdQLenPdf::30                      0                       # What read queue length does an incoming req see
system.mem_ctrls.rdQLenPdf::31                      0                       # What read queue length does an incoming req see
system.mem_ctrls.readBursts                         0                       # Number of DRAM read bursts, including those serviced by the write queue
system.mem_ctrls.readPktSize::0                     0                       # Read request sizes (log2)
system.mem_ctrls.readPktSize::1                     0                       # Read request sizes (log2)
system.mem_ctrls.readPktSize::2                     0                       # Read request sizes (log2)
system.mem_ctrls.readPktSize::3                     0                       # Read request sizes (log2)
system.mem_ctrls.readPktSize::4                     0                       # Read request sizes (log2)
system.mem_ctrls.readPktSize::5                     0                       # Read request sizes (log2)
system.mem_ctrls.readPktSize::6                     0                       # Read request sizes (log2)
system.mem_ctrls.readReqs                           0                       # Number of read requests accepted
system.mem_ctrls.readRowHitRate                   nan                       # Row buffer hit rate for reads
system.mem_ctrls.readRowHits                        0                       # Number of row buffer hits during reads
system.mem_ctrls.servicedByWrQ                      0                       # Number of DRAM read bursts serviced by the write queue
system.mem_ctrls.totBusLat                          0                       # Total ticks spent in databus transfers
system.mem_ctrls.totGap                             0                       # Total gap between requests
system.mem_ctrls.totMemAccLat                       0                       # Total ticks spent from burst creation until serviced by the DRAM
system.mem_ctrls.totQLat                            0                       # Total ticks spent queuing
system.mem_ctrls.wrQLenPdf::0                       0                       # What write queue length does an incoming req see
system.mem_ctrls.wrQLenPdf::1                       0                       # What write queue length does an incoming req see
system.mem_ctrls.wrQLenPdf::2                       0                       # What write queue length does an incoming req see
system.mem_ctrls.wrQLenPdf::3                       0                       # What write queue length does an incoming req see
system.mem_ctrls.wrQLenPdf::4                       0                       # What write queue length does an incoming req see
system.mem_ctrls.wrQLenPdf::5                       0                       # What write queue length does an incoming req see
system.mem_ctrls.wrQLenPdf::6                       0                       # What write queue length does an incoming req see
system.mem_ctrls.wrQLenPdf::7                       0                       # What write queue length does an incoming req see
system.mem_ctrls.wrQLenPdf::8                       0                       # What write queue length does an incoming req see
system.mem_ctrls.wrQLenPdf::9                       0                       # What write queue length does an incoming req see
system.mem_ctrls.wrQLenPdf::10                      0                       # What write queue length does an incoming req see
system.mem_ctrls.wrQLenPdf::11                      0                       # What write queue length does an incoming req see
system.mem_ctrls.wrQLenPdf::12                      0                       # What write queue length does an incoming req see
system.mem_ctrls.wrQLenPdf::13                      0                       # What write queue length does an incoming req see
system.mem_ctrls.wrQLenPdf::14                      0                       # What write queue length does an incoming req see
system.mem_ctrls.wrQLenPdf::15                      0                       # What write queue length does an incoming req see
system.mem_ctrls.wrQLenPdf::16                      0                       # What write queue length does an incoming req see
system.mem_ctrls.wrQLenPdf::17                      0                       # What write queue length does an incoming req see
system.mem_ctrls.wrQLenPdf::18                      0                       # What write queue length does an incoming req see
system.mem_ctrls.wrQLenPdf::19                      0                       # What write queue length does an incoming req see
system.mem_ctrls.wrQLenPdf::20                      0                       # What write queue length does an incoming req see
system.mem_ctrls.wrQLenPdf::21                      0                       # What write queue length does an incoming req see
system.mem_ctrls.wrQLenPdf::22                      0                       # What write queue length does an incoming req see
system.mem_ctrls.wrQLenPdf::23                      0                       # What write queue length does an incoming req see
system.mem_ctrls.wrQLenPdf::24                      0                       # What write queue length does an incoming req see
system.mem_ctrls.wrQLenPdf::25                      0                       # What write queue length does an incoming req see
system.mem_ctrls.wrQLenPdf::26                      0                       # What write queue length does an incoming req see
system.mem_ctrls.wrQLenPdf::27                      0                       # What write queue length does an incoming req see
system.mem_ctrls.wrQLenPdf::28                      0                       # What write queue length does an incoming req see
system.mem_ctrls.wrQLenPdf::29                      0                       # What write queue length does an incoming req see
system.mem_ctrls.wrQLenPdf::30                      0                       # What write queue length does an incoming req see
system.mem_ctrls.wrQLenPdf::31                      0                       # What write queue length does an incoming req see
system.mem_ctrls.wrQLenPdf::32                      0                       # What write queue length does an incoming req see
system.mem_ctrls.wrQLenPdf::33                      0                       # What write queue length does an incoming req see
system.mem_ctrls.wrQLenPdf::34                      0                       # What write queue length does an incoming req see
system.mem_ctrls.wrQLenPdf::35                      0                       # What write queue length does an incoming req see
system.mem_ctrls.wrQLenPdf::36                      0                       # What write queue length does an incoming req see
system.mem_ctrls.wrQLenPdf::37                      0                       # What write queue length does an incoming req see
system.mem_ctrls.wrQLenPdf::38                      0                       # What write queue length does an incoming req see
system.mem_ctrls.wrQLenPdf::39                      0                       # What write queue length does an incoming req see
system.mem_ctrls.wrQLenPdf::40                      0                       # What write queue length does an incoming req see
system.mem_ctrls.wrQLenPdf::41                      0                       # What write queue length does an incoming req see
system.mem_ctrls.wrQLenPdf::42                      0                       # What write queue length does an incoming req see
system.mem_ctrls.wrQLenPdf::43                      0                       # What write queue length does an incoming req see
system.mem_ctrls.wrQLenPdf::44                      0                       # What write queue length does an incoming req see
system.mem_ctrls.wrQLenPdf::45                      0                       # What write queue length does an incoming req see
system.mem_ctrls.wrQLenPdf::46                      0                       # What write queue length does an incoming req see
system.mem_ctrls.wrQLenPdf::47                      0                       # What write queue length does an incoming req see
system.mem_ctrls.wrQLenPdf::48                      0                       # What write queue length does an incoming req see
system.mem_ctrls.wrQLenPdf::49                      0                       # What write queue length does an incoming req see
system.mem_ctrls.wrQLenPdf::50                      0                       # What write queue length does an incoming req see
system.mem_ctrls.wrQLenPdf::51                      0                       # What write queue length does an incoming req see
system.mem_ctrls.wrQLenPdf::52                      0                       # What write queue length does an incoming req see
system.mem_ctrls.wrQLenPdf::53                      0                       # What write queue length does an incoming req see
system.mem_ctrls.wrQLenPdf::54                      0                       # What write queue length does an incoming req see
system.mem_ctrls.wrQLenPdf::55                      0                       # What write queue length does an incoming req see
system.mem_ctrls.wrQLenPdf::56                      0                       # What write queue length does an incoming req see
system.mem_ctrls.wrQLenPdf::57                      0                       # What write queue length does an incoming req see
system.mem_ctrls.wrQLenPdf::58                      0                       # What write queue length does an incoming req see
system.mem_ctrls.wrQLenPdf::59                      0                       # What write queue length does an incoming req see
system.mem_ctrls.wrQLenPdf::60                      0                       # What write queue length does an incoming req see
system.mem_ctrls.wrQLenPdf::61                      0                       # What write queue length does an incoming req see
system.mem_ctrls.wrQLenPdf::62                      0                       # What write queue length does an incoming req see
system.mem_ctrls.wrQLenPdf::63                      0                       # What write queue length does an incoming req see
system.mem_ctrls.writeBursts                        0                       # Number of DRAM write bursts, including those merged in the write queue
system.mem_ctrls.writePktSize::0                    0                       # Write request sizes (log2)
system.mem_ctrls.writePktSize::1                    0                       # Write request sizes (log2)
system.mem_ctrls.writePktSize::2                    0                       # Write request sizes (log2)
system.mem_ctrls.writePktSize::3                    0                       # Write request sizes (log2)
system.mem_ctrls.writePktSize::4                    0                       # Write request sizes (log2)
system.mem_ctrls.writePktSize::5                    0                       # Write request sizes (log2)
system.mem_ctrls.writePktSize::6                    0                       # Write request sizes (log2)
system.mem_ctrls.writeReqs                          0                       # Number of write requests accepted
system.mem_ctrls.writeRowHitRate                  nan                       # Row buffer hit rate for writes
system.mem_ctrls.writeRowHits                       0                       # Number of row buffer hits during writes
system.mem_ctrls_0.actBackEnergy                    0                       # Energy for active background per rank (pJ)
system.mem_ctrls_0.actEnergy                        0                       # Energy for activate commands per rank (pJ)
system.mem_ctrls_0.actPowerDownEnergy               0                       # Energy for active power-down per rank (pJ)
system.mem_ctrls_0.averagePower            384.000042                       # Core power per rank (mW)
system.mem_ctrls_0.memoryStateTime::IDLE   9068436500                       # Time in different power states
system.mem_ctrls_0.memoryStateTime::REF             0                       # Time in different power states
system.mem_ctrls_0.memoryStateTime::SREF            0                       # Time in different power states
system.mem_ctrls_0.memoryStateTime::PRE_PDN            0                       # Time in different power states
system.mem_ctrls_0.memoryStateTime::ACT             0                       # Time in different power states
system.mem_ctrls_0.memoryStateTime::ACT_PDN            0                       # Time in different power states
system.mem_ctrls_0.preBackEnergy           3482280000                       # Energy for precharge background per rank (pJ)
system.mem_ctrls_0.preEnergy                        0                       # Energy for precharge commands per rank (pJ)
system.mem_ctrls_0.prePowerDownEnergy               0                       # Energy for precharge power-down per rank (pJ)
system.mem_ctrls_0.readEnergy                       0                       # Energy for read commands per rank (pJ)
system.mem_ctrls_0.refreshEnergy                    0                       # Energy for refresh commands per rank (pJ)
system.mem_ctrls_0.selfRefreshEnergy                0                       # Energy for self refresh per rank (pJ)
system.mem_ctrls_0.totalEnergy             3482280000                       # Total energy per rank (pJ)
system.mem_ctrls_0.totalIdleTime                    0                       # Total Idle time Per DRAM Rank
system.mem_ctrls_0.writeEnergy                      0                       # Energy for write commands per rank (pJ)
system.mem_ctrls_1.actBackEnergy                    0                       # Energy for active background per rank (pJ)
system.mem_ctrls_1.actEnergy                        0                       # Energy for activate commands per rank (pJ)
system.mem_ctrls_1.actPowerDownEnergy               0                       # Energy for active power-down per rank (pJ)
system.mem_ctrls_1.averagePower            384.000042                       # Core power per rank (mW)
system.mem_ctrls_1.memoryStateTime::IDLE   9068436500                       # Time in different power states
system.mem_ctrls_1.memoryStateTime::REF             0                       # Time in different power states
system.mem_ctrls_1.memoryStateTime::SREF            0                       # Time in different power states
system.mem_ctrls_1.memoryStateTime::PRE_PDN            0                       # Time in different power states
system.mem_ctrls_1.memoryStateTime::ACT             0                       # Time in different power states
system.mem_ctrls_1.memoryStateTime::ACT_PDN            0                       # Time in different power states
system.mem_ctrls_1.preBackEnergy           3482280000                       # Energy for precharge background per rank (pJ)
system.mem_ctrls_1.preEnergy                        0                       # Energy for precharge commands per rank (pJ)
system.mem_ctrls_1.prePowerDownEnergy               0                       # Energy for precharge power-down per rank (pJ)
system.mem_ctrls_1.readEnergy                       0                       # Energy for read commands per rank (pJ)
system.mem_ctrls_1.refreshEnergy                    0                       # Energy for refresh commands per rank (pJ)
system.mem_ctrls_1.selfRefreshEnergy                0                       # Energy for self refresh per rank (pJ)
system.mem_ctrls_1.totalEnergy             3482280000                       # Total energy per rank (pJ)
system.mem_ctrls_1.totalIdleTime                    0                       # Total Idle time Per DRAM Rank
system.mem_ctrls_1.writeEnergy                      0                       # Energy for write commands per rank (pJ)
system.membus.pkt_count_system.cpu.icache.mem_side::system.mem_ctrls.port        10101                       # Packet count per connected master and slave (bytes)
system.membus.pkt_count_system.cpu.icache.mem_side::total        10101                       # Packet count per connected master and slave (bytes)
system.membus.pkt_count_system.cpu.dcache.mem_side::system.mem_ctrls.port       143339                       # Packet count per connected master and slave (bytes)
system.membus.pkt_count_system.cpu.dcache.mem_side::total       143339                       # Packet count per connected master and slave (bytes)
system.membus.pkt_count::total                 153440                       # Packet count per connected master and slave (bytes)
system.membus.pkt_size_system.cpu.icache.mem_side::system.mem_ctrls.port        90000                       # Cumulative packet size per connected master and slave (bytes)
system.membus.pkt_size_system.cpu.icache.mem_side::total        90000                       # Cumulative packet size per connected master and slave (bytes)
system.membus.pkt_size_system.cpu.dcache.mem_side::system.mem_ctrls.port      1247408                       # Cumulative packet size per connected master and slave (bytes)
system.membus.pkt_size_system.cpu.dcache.mem_side::total      1247408                       # Cumulative packet size per connected master and slave (bytes)
system.membus.pkt_size::total                 1337408                       # Cumulative packet size per connected master and slave (bytes)
system.membus.pwrStateResidencyTicks::UNDEFINED   9068436500                       # Cumulative time (in ticks) in various power states
system.membus.snoopTraffic                          0                       # Total snoop traffic (bytes)
system.membus.snoop_fanout::samples             53621                       # Request fanout histogram
system.membus.snoop_fanout::mean             0.000019                       # Request fanout histogram
system.membus.snoop_fanout::stdev            0.004318                       # Request fanout histogram
system.membus.snoop_fanout::underflows              0      0.00%      0.00% # Request fanout histogram
system.membus.snoop_fanout::0                   53620    100.00%    100.00% # Request fanout histogram
system.membus.snoop_fanout::1                       1      0.00%    100.00% # Request fanout histogram
system.membus.snoop_fanout::2                       0      0.00%    100.00% # Request fanout histogram
system.membus.snoop_fanout::3                       0      0.00%    100.00% # Request fanout histogram
system.membus.snoop_fanout::4                       0      0.00%    100.00% # Request fanout histogram
system.membus.snoop_fanout::overflows               0      0.00%    100.00% # Request fanout histogram
system.membus.snoop_fanout::min_value               0                       # Request fanout histogram
system.membus.snoop_fanout::max_value               1                       # Request fanout histogram
system.membus.snoop_fanout::total               53621                       # Request fanout histogram
system.membus.snoop_filter.hit_multi_requests            1                       # Number of requests hitting in the snoop filter with multiple (>1) holders of the requested data.
system.membus.snoop_filter.hit_multi_snoops            0                       # Number of snoops hitting in the snoop filter with multiple (>1) holders of the requested data.
system.membus.snoop_filter.hit_single_requests        46198                       # Number of requests hitting in the snoop filter with a single holder of the requested data.
system.membus.snoop_filter.hit_single_snoops            0                       # Number of snoops hitting in the snoop filter with a single holder of the requested data.
system.membus.snoop_filter.tot_requests         99819                       # Total number of requests made to the snoop filter.
system.membus.snoop_filter.tot_snoops               0                       # Total number of snoops made to the snoop filter.
system.membus.snoops                                0                       # Total snoops (count)
system.membus.trans_dist::ReadResp              26546                       # Transaction distribution
system.membus.trans_dist::WritebackDirty        28818                       # Transaction distribution
system.membus.trans_dist::WritebackClean         1149                       # Transaction distribution
system.membus.trans_dist::CleanEvict            16231                       # Transaction distribution
system.membus.trans_dist::ReadExReq             27075                       # Transaction distribution
system.membus.trans_dist::ReadExResp            27075                       # Transaction distribution
system.membus.trans_dist::ReadCleanReq           4476                       # Transaction distribution
system.membus.trans_dist::ReadSharedReq         22070                       # Transaction distribution
system.voltage_domain.voltage                       1                       # Voltage in Volts

---------- End Simulation Statistics   ----------
